test/test_files/validation_tests/case9target_res.m
function mpc = case9target_res
%CASE9TARGET_RES

%% MATPOWER Case Format : Version 2
mpc.version = '2';

%%-----  Power Flow Data  -----%%
%% system MVA base
mpc.baseMVA = 100;

%% bus data
%	bus_i	type	Pd	Qd	Gs	Bs	area	Vm	Va	baseKV	zone	Vmax	Vmin
mpc.bus = [
	1	3	0	0	0	0	1	1	0	345	1	1.1	0.9;
	2	2	0	0	0	0	1	1	-16.6966271	345	1	1.1	0.9;
	3	2	0	0	0	0	1	1	-29.1751246	345	1	1.1	0.9;
	4	1	0	0	0	0	1	0.790955052	-18.5189862	345	1	1.1	0.9;
	5	1	305.4	123.15	0	0	1	0.597319047	-44.3259483	345	1	1.1	0.9;
	6	1	0	0	0	0	1	0.894721276	-33.8556954	345	1	1.1	0.9;
	7	1	214.11	71.09	0	0	1	0.848936517	-36.1891354	345	1	1.1	0.9;
	8	1	0	0	0	0	1	0.900096119	-26.6126063	345	1	1.1	0.9;
	9	1	235.61	81.44	0	0	1	0.732465025	-33.3531912	345	1	1.1	0.9;
];

%% generator data
%	bus	Pg	Qg	Qmax	Qmin	Vg	mBase	status	Pmax	Pmin	Pc1	Pc2	Qc1min	Qc1max	Qc2min	Qc2max	ramp_agc	ramp_10	ramp_30	ramp_q	apf
mpc.gen = [
	1	436.149762	434.030938	300	-300	1	100	1	250	10	0	0	0	0	0	0	0	0	0	0	0;
	2	248	181.36018	300	-300	1	100	1	300	10	0	0	0	0	0	0	0	0	0	0	0;
	3	124.59	184.748321	300	-300	1	100	1	270	10	0	0	0	0	0	0	0	0	0	0	0;
];

%% branch data
%	fbus	tbus	r	x	b	rateA	rateB	rateC	ratio	angle	status	angmin	angmax	Pf	Qf	Pt	Qt
mpc.branch = [
	1	4	0	0.0576	0	250	250	250	0	0	1	-360	360	436.1498	434.0309	-436.1498	-215.9519;
	4	5	0.017	0.092	0.158	250	250	250	0	0	1	-360	360	255.0789	165.6159	-229.4936	-34.9153;
	5	6	0.039	0.17	0.358	150	150	150	0	0	1	-360	360	-75.9064	-88.2347	89.5271	126.8913;
	3	6	0	0.0586	0	300	300	300	0	0	1	-360	360	124.5900	184.7483	-124.5900	-155.6507;
	6	7	0.0119	0.1008	0.209	150	150	150	0	0	1	-360	360	35.0629	28.7594	-34.6752	-41.3727;
	7	8	0.0085	0.072	0.149	250	250	250	0	0	1	-360	360	-179.4348	-29.7173	183.3020	51.0705;
	8	2	0	0.0625	0	250	250	250	0	0	1	-360	360	-248.0000	-122.3630	248.0000	181.3602;
	8	9	0.032	0.161	0.306	250	250	250	0	0	1	-360	360	64.6980	71.2925	-60.2784	-69.6605;
	9	4	0.01	0.085	0.176	250	250	250	0	0	1	-360	360	-175.3316	-11.7795	181.0708	50.3359;
];

%%-----  OPF Data  -----%%
%% generator cost data
%	1	startup	shutdown	n	x1	y1	...	xn	yn
%	2	startup	shutdown	n	c(n-1)	...	c0
mpc.gencost = [
	2	1500	0	3	0.11	5	150;
	2	2000	0	3	0.085	1.2	600;
	2	3000	0	3	0.1225	1	335;
];
